.model MbreakN-X NMOS Kp = 50u Vto = 1V 
*$
